/*--------------------------------*- C++ -*----------------------------------*\
  =========                 |
  \\      /  F ield         | OpenFOAM: The Open Source CFD Toolbox
   \\    /   O peration     | Website:  https://openfoam.org
    \\  /    A nd           | Version:  7
     \\/     M anipulation  |
\*---------------------------------------------------------------------------*/
FoamFile
{
    version     2.0;
    format      ascii;
    class       polyBoundaryMesh;
    location    "constant/polyMesh";
    object      boundary;
}
// * * * * * * * * * * * * * * * * * * * * * * * * * * * * * * * * * * * * * //

4
(
    walls
    {
        type            wall;
        inGroups        List<word> 1(wall);
        nFaces          3964;
        startFace       107377;
    }
    inlet
    {
        type            patch;
        nFaces          253;
        startFace       111341;
    }
    outlet
    {
        type            patch;
        nFaces          253;
        startFace       111594;
    }
    emptyFaces
    {
        type            empty;
        inGroups        List<word> 1(empty);
        nFaces          109612;
        startFace       111847;
    }
)

// ************************************************************************* //
